/*--------------------------------*- C++ -*----------------------------------*\
| =========                 |                                                 |
| \\      /  F ield         | OpenFOAM: The Open Source CFD Toolbox           |
|  \\    /   O peration     | Version:  dev                                   |
|   \\  /    A nd           | Web:      www.OpenFOAM.org                      |
|    \\/     M anipulation  |                                                 |
\*---------------------------------------------------------------------------*/
FoamFile
{
    version     2.0;
    format      ascii;
    class       volScalarField;
    location    "0/fluidA";
    object      k;
}
// * * * * * * * * * * * * * * * * * * * * * * * * * * * * * * * * * * * * * //

dimensions      [0 2 -2 0 0 0 0];

internalField   uniform 0.5;

boundaryField
{
    inlet
    {
        type            turbulentIntensityKineticEnergyInlet;
        intensity       0.05; //5% turbulent intensity
        value           $internalField;
    }
    outlet
    {
        type            inletOutlet;
        inletValue      $internalField;
    }
    inletOther
    {
        type            kqRWallFunction;
        value           $internalField;
    }
    outletOther
    {
        type            kqRWallFunction;
        value           $internalField;
    }
    walls
    {
        type            kqRWallFunction;
        value           $internalField;
    }
    fluidA_to_fluidB
    {
        type            kqRWallFunction;
        value           $internalField;
    }
}


// ************************************************************************* //
