/*--------------------------------*- C++ -*----------------------------------*\
| =========                 |                                                 |
| \\      /  F ield         | OpenFOAM: The Open Source CFD Toolbox           |
|  \\    /   O peration     | Version:  dev                                   |
|   \\  /    A nd           | Web:      www.OpenFOAM.com                      |
|    \\/     M anipulation  |                                                 |
\*---------------------------------------------------------------------------*/
FoamFile
{
    version     2.0;
    format      binary;
    class       volScalarField;
    location    "0/fluidB";
    object      p;
}
// * * * * * * * * * * * * * * * * * * * * * * * * * * * * * * * * * * * * * //

dimensions      [1 -1 -2 0 0 0 0];

internalField   uniform 100000;

boundaryField
{
    inletB
    {
        type            calculated;
        value           uniform 100000;
    }
    outletB
    {
        type            calculated;
        value           uniform 100000;
    }
    frontAndBack
    {
        type            empty;
    }
    walls
    {
        type            calculated;
        value           uniform 100000;
    }
    fluidB_to_solidWall
    {
        type            calculated;
        value           uniform 100000;
    }
}


// ************************************************************************* //
