/*--------------------------------*- C++ -*----------------------------------*\
| =========                 |                                                 |
| \\      /  F ield         | OpenFOAM: The Open Source CFD Toolbox           |
|  \\    /   O peration     | Version:  dev                                   |
|   \\  /    A nd           | Web:      www.OpenFOAM.com                      |
|    \\/     M anipulation  |                                                 |
\*---------------------------------------------------------------------------*/
FoamFile
{
    version     2.0;
    format      binary;
    class       volVectorField;
    location    "0/fluidB";
    object      U;
}
// * * * * * * * * * * * * * * * * * * * * * * * * * * * * * * * * * * * * * //

dimensions      [0 1 -1 0 0 0 0];

internalField   uniform (0 0 0);

boundaryField
{
    inletB
    {
        type            fixedValue;
        value           uniform (0.2 0 0);
    }
    outletB
    {
        type            zeroGradient;
    }
    frontAndBack
    {
        type            empty;
    }
    walls
    {
        type            fixedValue;
        value           uniform (0 0 0);
    }
    fluidB_to_solidWall
    {
        type            fixedValue;
        value           uniform (0 0 0);
    }
}


// ************************************************************************* //
