/*--------------------------------*- C++ -*----------------------------------*\
| =========                 |                                                 |
| \\      /  F ield         | OpenFOAM: The Open Source CFD Toolbox           |
|  \\    /   O peration     | Version:  v3.0+                                 |
|   \\  /    A nd           | Web:      www.OpenFOAM.com                      |
|    \\/     M anipulation  |                                                 |
\*---------------------------------------------------------------------------*/
FoamFile
{
    version     2.0;
    format      ascii;
    class       dictionary;
    object      blockMeshDict;
}
// * * * * * * * * * * * * * * * * * * * * * * * * * * * * * * * * * * * * * //

convertToMeters 1;

vertices
(
    (0 0 0) //0
    (1 0 0) //1
    (0 1 0) //2
    (1 1 0) //3
    (2 1 0) //4
    (0 2 0) //5
    (1 2 0) //6
    (2 2 0) //7
    (0 0 0.01) //8
    (1 0 0.01) //9
    (0 1 0.01) //10
    (1 1 0.01) //11
    (2 1 0.01) //12
    (0 2 0.01) //13
    (1 2 0.01) //14
    (2 2 0.01) //15
    
);

blocks
(
    hex (0 1 3 2 8 9 11 10) (25 25 1) simpleGrading (1 1 1)
    hex (2 3 6 5 10 11 14 13) (25 25 1) simpleGrading (1 1 1)
    hex (3 4 7 6 11 12 15 14) (25 25 1) simpleGrading (1 1 1)
);

edges
(
);

boundary
(
    top
    {
        type patch;
        faces
        (
            (5 13 14 6)
            (6 14 15 7)
        );
    }

    left
    {
        type patch;
        faces
        (
            (0 8 10 2)
            (2 10 13 5)
        );
    }

    right
    {
        type patch;
        faces
        (
            (4 7 15 12)
        );
    }

    notch
    {
        type patch;
        faces
        (
            (3 4 12 11)
            (1 3 11 9)
        );
    }

    bottom
    {
        type patch;
        faces
        (
            (0 1 9 8)
        );
    }

    frontAndBack
    {
        type empty;
        faces
        (
            (0 2 3 1)
            (2 5 6 3)
            (3 6 7 4)
            (8 9 11 10)
            (10 11 14 13)
            (11 12 15 14)
        );
    }
);

mergePatchPairs
(
);

// ************************************************************************* //
